[TITLE]

[JUNCTIONS]
 1                                    96.2000
 2                                    95.8000
 3                                    96.3000
 4                                    97.5000
 5                                    98.4000
 6                                   101.1000
 7                                   100.0000
 8                                   100.1000
 9                                    98.8000
 10                                   98.0000
 11                                   96.8000
 12                                   96.0000
 13                                   95.7000
 14                                   95.3000
 15                                   95.2000
 16                                   95.0000
 17                                  100.3000
 18                                  102.0000
 19                                  103.0000
 20                                  102.8000
 21                                  101.1000
 22                                  103.0000
 23                                  103.8000
 24                                   99.5000
 0                                    97.0000
 Inflow                              140.0000

[RESERVOIRS]

[TANKS]
 1000                                128.0000       3.0000       0.0000       4.0000     190.0000       0.0000 

[PIPES]
 1                               0                               1                                   150.0000     315.0000     130.0000       0.0000 
 2                               1                               2                                   462.0000     315.0000     130.0000       0.0000 
 3                               2                               3                                   162.0000     280.0000     130.0000       0.0000 
 4                               3                               4                                   118.0000     280.0000     130.0000       0.0000 
 5                               4                               5                                    80.0000     280.0000     130.0000       0.0000 
 6                               5                               6                                   112.0000     280.0000     130.0000       0.0000 
 7                               6                               7                                   250.0000     280.0000     130.0000       0.0000 
 8                               7                               8                                    13.0000     180.0000     130.0000       0.0000 
 9                               8                               9                                    63.0000     160.0000     130.0000       0.0000 
 10                              9                               10                                   50.0000     160.0000     130.0000       0.0000 
 11                              10                              11                                   83.0000     160.0000     130.0000       0.0000 
 12                              11                              12                                   30.0000     140.0000     130.0000       0.0000 
 13                              12                              13                                   30.0000     140.0000     130.0000       0.0000 
 14                              13                              14                                   63.0000     140.0000     130.0000       0.0000 
 15                              14                              15                                   35.0000     140.0000     130.0000       0.0000 
 16                              15                              16                                   40.0000     125.0000     130.0000       0.0000 
 17                              7                               17                                  315.0000     225.0000     130.0000       0.0000 
 18                              17                              18                                  413.0000     225.0000     130.0000       0.0000 
 19                              18                              19                                  173.0000     225.0000     130.0000       0.0000 
 20                              19                              20                                   43.0000     180.0000     130.0000       0.0000 
 21                              6                               21                                    1.0000     180.0000     130.0000       0.0000 
 22                              21                              22                                  123.0000     180.0000     130.0000       0.0000 
 23                              22                              23                                   75.0000     140.0000     130.0000       0.0000 
 24                              8                               24                                   63.0000     160.0000     130.0000       0.0000 
 Ext2                            Inflow                          1000                                 10.0000     300.0000     130.0000       0.0000 
 Ext1                            1000                            0                                  1000.0000     300.0000     130.0000       0.0000 

[PUMPS]

[VALVES]

[DEMANDS]
 1                                     0.000000    1
 2                                     0.000000    1
 3                                     0.000000    1
 4                                     0.000000    1
 5                                     0.000000    1
 6                                     0.000000    1
 7                                     0.000000    1
 8                                     0.000000    1
 9                                     0.000000    1
 10                                    0.000000    1
 11                                    0.000000    1
 12                                    0.000000    1
 13                                    0.000000    1
 14                                    0.000000    1
 15                                    0.000000    1
 16                                    0.000000    1
 17                                    0.000000    1
 18                                    0.000000    1
 19                                    0.000000    1
 20                                    0.000000    1
 21                                    0.000000    1
 22                                    0.000000    1
 23                                    0.000000    1
 24                                    0.000000    1
 0                                     0.000000    1
 Inflow                              -60.000000    1

[EMITTERS]

[STATUS]

[PATTERNS]
 1                                     1.0000       1.0000       1.0000       1.0000       1.0000       1.0000
 1                                     1.0000       1.0000       1.0000       1.0000       1.0000       1.0000
 1                                     1.0000       1.0000       1.0000       1.0000       1.0000       1.0000
 1                                     1.0000       1.0000       1.0000       1.0000       1.0000       1.0000

[CURVES]

[CONTROLS]

[QUALITY]

[SOURCES]

[MIXING]
 1000                            MIXED          1.0000

[REACTIONS]
 ORDER  BULK            1.00
 ORDER  WALL            1
 ORDER  TANK            1.00
 GLOBAL BULK            0.000000
 GLOBAL WALL            0.000000

[ENERGY]
 GLOBAL EFFIC        75.0000
 DEMAND CHARGE       0.0000

[TIMES]
 DURATION            100:00:00
 HYDRAULIC TIMESTEP  1:00:00
 QUALITY TIMESTEP    0:05:00
 REPORT TIMESTEP     1:00:00
 REPORT START        0:00:00
 PATTERN TIMESTEP    1:00:00
 PATTERN START       0:00:00
 RULE TIMESTEP       0:06:00
 START CLOCKTIME     0:00:00
 STATISTIC           NONE

[OPTIONS]
 UNITS               LPS
 PRESSURE            METERS
 HEADLOSS            H-W
 PATTERN             1
 UNBALANCED          CONTINUE 10
 QUALITY             NONE
 DEMAND MULTIPLIER   1.0000
 EMITTER EXPONENT    0.5000
 VISCOSITY           1.000000
 DIFFUSIVITY         1.000000
 SPECIFIC GRAVITY    1.000000
 TRIALS              40
 ACCURACY            0.00100000
 TOLERANCE           0.01000000
 CHECKFREQ           2
 MAXCHECK            10
 DAMPLIMIT           0.00000000

[REPORT]
 PAGESIZE            0
 STATUS              NO
 SUMMARY             NO
 ENERGY              NO
 MESSAGES            YES
 NODES               NONE
 LINKS               NONE
 Elevation           NO
 Demand              PRECISION 2
 Head                PRECISION 2
 Pressure            PRECISION 2
 Quality             NO
 Length              NO
 Diameter            NO
 Flow                PRECISION 2
 Velocity            PRECISION 2
 Headloss            PRECISION 2
 Quality             NO
 State               NO
 Setting             NO
 Reaction            NO



[COORDINATES]

[TAGS]

[VERTICES]
;Link            	X-Coord         	Y-Coord

[LABELS]
;X-Coord           Y-Coord          Label & Anchor Node

[BACKDROP]
 DIMENSIONS     	0.00            	0.00            	10000.00        	10000.00        
 UNITS          	None
 FILE           	
 OFFSET         	0.00            	0.00            



[END]