[TITLE]
PROJECT NAME: Progetto completo 
PROJECT DESCRIPTION:  
PROJECT CREATOR:  

[JUNCTIONS]
;ID              	Elev        	Demand      	Pattern         
 DERB.16         	373.4580    	0.000000    	                	;
 DERB.13         	374.8830    	0.000000    	                	;
 DERB.20         	374.3240    	0.000000    	                	;
 NODOB3          	353.7620    	0.000000    	                	;
 DERB.8          	355.2070    	0.000000    	                	;
 NODOL           	398.6300    	0.000000    	                	;
 NODOM           	395.2420    	0.000000    	                	;
 NODOH           	401.6690    	0.000000    	                	;
 NODOB1          	390.2290    	0.000000    	                	;
 DERB.18         	390.9310    	0.000000    	                	;
 NODOB           	414.4680    	0           	                	;
 NODOQ           	405.5160    	0.000000    	                	;
 NODOI           	400.0640    	0.000000    	                	;
 NODOV           	402.3880    	0.000000    	                	;
 NODOD           	411.6170    	0.000000    	                	;
 NODOE           	397.1790    	0.000000    	                	;
 DERB.3          	370.4390    	0.000000    	                	;
 DERB.2          	372.3380    	0.000000    	                	;
 DERB.7          	359.5830    	0.000000    	                	;
 NODOO           	392.1830    	0.000000    	                	;
 NODON           	384.9530    	0.000000    	                	;
 B8-1            	356.3610    	0.000000    	                	;
 DERB.1.1        	364.0230    	0.000000    	                	;
 DER2.1          	371.9940    	0.000000    	                	;
 B18-2           	371.4120    	0           	                	;
 DER3.2          	371.1620    	0.000000    	                	;
 B20-3           	370.3470    	0.000000    	                	;
 B45-5           	370.1140    	0.000000    	                	;
 DER5.2          	370.6100    	0.000000    	                	;
 DER5.1          	371.1000    	0.000000    	                	;
 DERB.5          	370.6670    	0.000000    	                	;
 B29-5           	370.9500    	0.000000    	                	;
 B30-5           	371.4310    	0.000000    	                	;
 DER6.2          	373.5590    	0.000000    	                	;
 B91-6           	374.9140    	0.000000    	                	;
 B15-1           	360.6280    	0.000000    	                	;
 B14-1           	360.6310    	0.000000    	                	;
 B13-1           	366.8360    	0.000000    	                	;
 DER3.1          	369.5110    	0.000000    	                	;
 B21-3           	371.1480    	0.000000    	                	;
 DER4.1          	362.7360    	0.000000    	                	;
 B33-4           	362.2310    	0.000000    	                	;
 B31-4           	369.5710    	0.000000    	                	;
 B32-4           	362.5880    	0.000000    	                	;
 B238-20         	379.6290    	0           	                	;
 B239-20         	379.9990    	0.000000    	                	;
 B194-17         	368.5840    	0.000000    	                	;
 B193-17         	368.6660    	0.000000    	                	;
 B65-9           	355.1190    	0.000000    	                	;
 B66-9           	355.0540    	0.000000    	                	;
 B104-10         	370.3030    	0.000000    	                	;
 B105-10         	371.1390    	0.000000    	                	;
 B110-12a        	369.5440    	0.000000    	                	;
 DER12.A.1       	369.1810    	0.000000    	                	;
 B140-12         	361.4600    	0.000000    	                	;
 DER12.2         	362.5360    	0           	                	;
 DER12.1         	366.3440    	0.000000    	                	;
 B142-12         	366.9400    	0.000000    	                	;
 DER16.1         	370.2490    	0.000000    	                	;
 B187-16         	370.5940    	0.000000    	                	;
 DER11.1         	360.3940    	0.000000    	                	;
 B133-11         	360.2240    	0.000000    	                	;
 B122-12a        	379.0180    	0.000000    	                	;
 B123-12a        	379.1870    	0.000000    	                	;
 B219-14         	381.5410    	0.000000    	                	;
 B295-14         	379.3170    	0.000000    	                	;
 B221-14         	387.0030    	0.000000    	                	;
 DER14.1         	387.6370    	0.000000    	                	;
 B127-11         	358.0300    	0.000000    	                	;
 DERB.11         	361.7530    	0.000000    	                	;
 B62-9           	355.1720    	0.000000    	                	;
 B63-9           	355.7640    	0.000000    	                	;
 DER10.2         	368.1090    	0.000000    	                	;
 B102-10         	367.2920    	0.000000    	                	;
 DERB.10         	361.7690    	0.000000    	                	;
 DER10.1         	367.2280    	0.000000    	                	;
 B120-12a        	380.4240    	0.000000    	                	;
 DER12.A.4       	380.6530    	0.000000    	                	;
 B111-12a        	372.0570    	0.000000    	                	;
 DER12.A.2       	372.2210    	0.000000    	                	;
 2A.M'2.163      	401.4360    	0.000000    	                	;
 2A.M'2.162      	396.0100    	0.000000    	                	;
 2A.M1.148       	386.3850    	0.000000    	                	;
 2A.M1.147       	386.8960    	0.000000    	                	;
 2A.H1.115       	402.2440    	0.000000    	                	;
 2A.H1.117       	401.2720    	0.000000    	                	;
 2A.I2.122       	399.8090    	0.000000    	                	;
 2A.I2.123       	396.9590    	0.000000    	                	;
 2A.F1.105       	394.6050    	0.000000    	                	;
 2A.F1.106       	396.4290    	0.000000    	                	;
 2A.F1.099       	395.9220    	0.000000    	                	;
 2A.F1.100       	397.9160    	0.000000    	                	;
 DERP.1          	374.6750    	0           	                	;
 2A.P1.081       	376.0920    	0.000000    	                	;
 2A.P1.068       	383.9670    	0.000000    	                	;
 2A.P1.067       	384.9810    	0.000000    	                	;
 DERO1           	389.9990    	0.000000    	                	;
 2A.O1.051       	390.3900    	0.000000    	                	;
 2A.F1.108       	391.7170    	0.000000    	                	;
 2A.F1.109       	394.8870    	0.000000    	                	;
 2A.S1.023       	378.0970    	0.000000    	                	;
 2A.S1.024       	379.7400    	0.000000    	                	;
 2A.C1.008       	395.2680    	0.000000    	                	;
 2A.C1.013       	394.8340    	0.000000    	                	;
 2A.R1.021       	388.9960    	0.000000    	                	;
 2A.R1.018       	384.5060    	0.000000    	                	;
 NODOU           	373.5370    	0.000000    	                	;
 2A.U2.036       	373.5460    	0.000000    	                	;
 2A.O1.058       	391.5310    	0.000000    	                	;
 B109-12a        	366.0750    	0.000000    	                	;
 DERB12.a        	365.7670    	0.000000    	                	;
 B231-20         	374.9490    	0.000000    	                	;
 B232-20         	373.1910    	0.000000    	                	;
 2A.B1.001       	411.0170    	0.000000    	                	;
 B1-1            	348.3990    	0.000000    	                	;
 B2-1            	346.2830    	0.000000    	                	;
 B128-11         	362.1820    	0.000000    	                	;
 B147-12         	368.0860    	0.000000    	                	;
 B296-12         	367.4770    	0.000000    	                	;
 DERB4           	370.0580    	0.000000    	                	;
 2A.M'2.157      	395.6670    	0.000000    	                	;
 NODOM'          	397.1910    	0.000000    	                	;
 2A.M'2.172      	387.7260    	0           	                	;
 2A.M'2.174      	389.2760    	0.000000    	                	;
 2A.P1.082       	373.9870    	0.000000    	                	;
 2A.P1.080       	374.5060    	0.000000    	                	;
 2A.U3.037       	375.1560    	0.000000    	                	;
 NODOR           	380.1370    	0.000000    	                	;
 2A.R1.014       	380.3190    	0.000000    	                	;
 2A.Q1.004       	385.6840    	0.000000    	                	;
 2A.Q1.003       	399.4180    	0.000000    	                	;
 DERB.19         	389.0090    	0.000000    	                	;
 B284-19         	394.6540    	0.000000    	                	;
 B283-19         	386.3150    	0.000000    	                	;
 DER20.1         	374.9240    	0.000000    	                	;
 B265-20         	375.2850    	0.000000    	                	;
 B248-18         	390.9420    	0.000000    	                	;
 B250-18         	390.5350    	0.000000    	                	;
 B156-13         	377.4260    	0.000000    	                	;
 B155-13         	376.4670    	0.000000    	                	;
 DER14.2         	383.0540    	0           	                	;
 B222-14         	383.7590    	0.000000    	                	;
 B182-16         	365.3520    	0.000000    	                	;
 B181-16         	365.0350    	0.000000    	                	;
 DERM'.1         	380.5540    	0.000000    	                	;
 2A.M'2.182      	380.3450    	0.000000    	                	;
 NODOZ           	403.5200    	0.000000    	                	;
 2A.Z1.468       	403.8970    	0.000000    	                	;
 DERZ.1          	405.0770    	0.000000    	                	;
 2A.Z1.471       	405.0380    	0.000000    	                	;
 2A.Z1.481       	403.3990    	0.000000    	                	;
 2A.V1.462       	401.8800    	0.000000    	                	;
 2A.V1.461       	402.6540    	0.000000    	                	;
 2A.I2.126       	400.0400    	0.000000    	                	;
 2A.I2.125       	399.5010    	0.000000    	                	;
 2A.H2.119       	401.1590    	0.000000    	                	;
 2A.H2.118       	401.5270    	0.000000    	                	;
 2A.H3.120       	399.9360    	0.000000    	                	;
 2A.N1.097       	377.8490    	0.000000    	                	;
 2A.N1.096       	378.7990    	0.000000    	                	;
 2A.N1.086       	379.6030    	0.000000    	                	;
 2A.N1.090       	380.7060    	0.000000    	                	;
 2A.N1.089       	384.8800    	0.000000    	                	;
 2A.N1.088       	384.4650    	0.000000    	                	;
 2A.L1.132       	392.3020    	0.000000    	                	;
 2A.L1.131       	392.8040    	0.000000    	                	;
 DERL.1          	394.7550    	0.000000    	                	;
 2A.L1.129       	394.8810    	0.000000    	                	;
 2A.M1.152       	388.6210    	0.000000    	                	;
 2A.M1.145       	388.9010    	0.000000    	                	;
 2A.M1.146       	388.5200    	0.000000    	                	;
 2A.M1.156       	385.2120    	0.000000    	                	;
 2A.M1.154       	389.0640    	0.000000    	                	;
 2A.F1.114       	387.5070    	0.000000    	                	;
 2A.F1.113       	387.6710    	0.000000    	                	;
 2A.F1.104       	391.7600    	0.000000    	                	;
 2A.F1.101       	395.1650    	0.000000    	                	;
 2A.F1.102       	394.4990    	0.000000    	                	;
 2A.E1.046       	396.1940    	0.000000    	                	;
 2A.O1.061       	379.3730    	0.000000    	                	;
 2A.O1.060       	379.8070    	0.000000    	                	;
 2A.O1.057       	385.1300    	0.000000    	                	;
 2A.O1.056       	385.1090    	0.000000    	                	;
 2A.O1.053       	388.7660    	0.000000    	                	;
 2A.O1.052       	389.1990    	0.000000    	                	;
 2A.D1.043       	389.9580    	0.000000    	                	;
 2A.D1.042       	392.4040    	0.000000    	                	;
 2A.D1.045       	393.8650    	0.000000    	                	;
 2A.D1.044       	394.8000    	0.000000    	                	;
 DERD.1          	395.2920    	0.000000    	                	;
 2A.D1.040       	395.2510    	0.000000    	                	;
 NODOC           	419.2720    	0.000000    	                	;
 2A.C1.007       	418.6340    	0.000000    	                	;
 2A.Q1.005       	395.5870    	0.000000    	                	;
 NODOS           	375.5050    	0.000000    	                	;
 2A.S1.022       	376.5350    	0.000000    	                	;
 NODOT           	373.7380    	0.000000    	                	;
 DERT.1          	373.9420    	0.000000    	                	;
 2A.T2.029       	373.9600    	0.000000    	                	;
 2A.T1.029       	373.3550    	0.000000    	                	;
 2A.T1.028       	373.4970    	0.000000    	                	;
 2A.U1.035       	373.3080    	0.000000    	                	;
 2A.U1.034       	373.3550    	0.000000    	                	;
 DERB.17         	365.6130    	0.000000    	                	;
 B200-17         	365.8820    	0.000000    	                	;
 B197-17         	368.9450    	0.000000    	                	;
 B198-17         	369.4170    	0.000000    	                	;
 2A.M1.135       	392.8010    	0.000000    	                	;
 2A.M1.134       	393.6710    	0.000000    	                	;
 2A.M1.137       	392.5360    	0.000000    	                	;
 2A.M1.138       	393.2610    	0.000000    	                	;
 DER20.2         	380.3110    	0.000000    	                	;
 B268-20         	379.9330    	0.000000    	                	;
 B235-20         	374.5270    	0.000000    	                	;
 B236-20         	377.4760    	0.000000    	                	;
 B276-19         	381.2020    	0.000000    	                	;
 B275-19         	380.0870    	0           	                	;
 B277-19         	384.0850    	0.000000    	                	;
 B278-19         	385.4700    	0.000000    	                	;
 B291-19         	399.4760    	0.000000    	                	;
 B290-19         	396.2870    	0.000000    	                	;
 B240-18         	382.4940    	0.000000    	                	;
 B241-18         	384.1790    	0           	                	;
 B249-18         	389.2410    	0.000000    	                	;
 B258-18         	399.2610    	0.000000    	                	;
 B257-18         	395.1880    	0           	                	;
 DER18.1         	394.8500    	0.000000    	                	;
 B254-18         	396.6010    	0.000000    	                	;
 DERB.15         	363.9410    	0.000000    	                	;
 B170-15         	360.6680    	0.000000    	                	;
 B163-15         	360.9310    	0.000000    	                	;
 B162-15         	360.8550    	0.000000    	                	;
 B171-15         	364.0320    	0.000000    	                	;
 DER16.2         	365.1690    	0.000000    	                	;
 B180-16         	364.9480    	0.000000    	                	;
 B183-16         	365.2920    	0.000000    	                	;
 B188-16         	369.1910    	0.000000    	                	;
 B189-16         	369.6900    	0.000000    	                	;
 B191-16         	373.8060    	0           	                	;
 B230-16         	376.7980    	0.000000    	                	;
 DER16.3         	379.9070    	0.000000    	                	;
 B228-16         	380.0710    	0.000000    	                	;
 B216-14         	383.7070    	0.000000    	                	;
 B217-14         	382.8470    	0.000000    	                	;
 B149-13         	371.2100    	0.000000    	                	;
 B152-13         	373.4110    	0.000000    	                	;
 B151-13         	372.4180    	0.000000    	                	;
 B137-12         	360.0480    	0.000000    	                	;
 B138-12         	360.5930    	0.000000    	                	;
 B125-12a        	382.2280    	0.000000    	                	;
 B124-12a        	381.9860    	0.000000    	                	;
 B121-12a        	380.8020    	0.000000    	                	;
 B112-12a        	372.2210    	0.000000    	                	;
 B89-6           	375.4200    	0.000000    	                	;
 DER6.1          	375.0010    	0.000000    	                	;
 B86-6           	371.6630    	0.000000    	                	;
 B85-6           	370.0830    	0.000000    	                	;
 B93-6           	365.5290    	0.000000    	                	;
 B92-6           	370.5100    	0.000000    	                	;
 B88-6           	368.6230    	0.000000    	                	;
 B87-6           	366.0280    	0.000000    	                	;
 B52BIS-5        	361.9020    	0.000000    	                	;
 B52-5           	361.6690    	0.000000    	                	;
 B49-5           	358.5810    	0.000000    	                	;
 B48-5           	363.8360    	0.000000    	                	;
 B71-9           	350.5660    	0           	                	;
 B70-9           	352.6840    	0.000000    	                	;
 B68-9           	354.4020    	0.000000    	                	;
 B69-9           	351.6920    	0.000000    	                	;
 B61-9           	355.1910    	0.000000    	                	;
 B161-9          	359.5260    	0.000000    	                	;
 B160-9          	358.5510    	0.000000    	                	;
 DERB.9          	355.0820    	0.000000    	                	;
 B64-9           	360.3560    	0.000000    	                	;
 B60-8           	355.5820    	0.000000    	                	;
 B75-7           	356.1450    	0.000000    	                	;
 B81-7           	375.4610    	0           	                	;
 B82-7           	375.3670    	0.000000    	                	;
 B97-10          	368.3100    	0.000000    	                	;
 B98-10          	366.4510    	0.000000    	                	;
 B99-10          	365.8470    	0.000000    	                	;
 B100-10         	365.7290    	0.000000    	                	;
 B9-1            	368.7000    	0.000000    	                	;
 B7-1            	359.7440    	0.000000    	                	;
 DERB.1.2        	362.0110    	0.000000    	                	;
 B6-1            	355.7380    	0.000000    	                	;
 B5-1            	350.1100    	0.000000    	                	;
 B4-1            	344.9990    	0.000000    	                	;
 B3-1            	346.5780    	0.000000    	                	;
 B11-1           	359.7230    	0.000000    	                	;
 B12-1           	355.6720    	0.000000    	                	;
 DER2.2          	370.7480    	0.000000    	                	;
 B17-2           	364.3830    	0.000000    	                	;
 B16-2           	351.1300    	0.000000    	                	;
 B22-3           	367.9080    	0           	                	;
 B23-3           	366.2290    	0.000000    	                	;
 B24-3           	364.3140    	0.000000    	                	;
 B25-3           	370.4470    	0.000000    	                	;
 B28-3           	370.7590    	0.000000    	                	;
 B27-3           	370.9160    	0.000000    	                	;
 B19-3           	370.2120    	0           	                	;
 B38-4           	344.8480    	0.000000    	                	;
 B34-4           	362.4560    	0.000000    	                	;
 B35-4           	362.1880    	0           	                	;
 B44-5           	369.0920    	0.000000    	                	;
 B43-5           	364.2900    	0.000000    	                	;
 B42-5           	357.4720    	0.000000    	                	;
 B46-5           	370.4810    	0           	                	;
 DER5.3          	368.6650    	0.000000    	                	;
 B50-5           	364.4940    	0.000000    	                	;
 B51-5           	361.0540    	0.000000    	                	;
 B47-5           	367.3600    	0.000000    	                	;
 DERB.6          	370.3330    	0.000000    	                	;
 B84-6           	367.2380    	0.000000    	                	;
 B83-6           	372.3770    	0.000000    	                	;
 B90-6           	373.5500    	0.000000    	                	;
 B74-7           	354.3640    	0           	                	;
 B73-7           	353.3270    	0.000000    	                	;
 B72-7           	353.2770    	0.000000    	                	;
 B76-7           	367.1010    	0.000000    	                	;
 DER7.2          	369.4300    	0.000000    	                	;
 B80-7           	371.7460    	0.000000    	                	;
 B77-7           	369.7660    	0.000000    	                	;
 B78-7           	369.5840    	0.000000    	                	;
 B79-7           	371.8920    	0.000000    	                	;
 B297-7          	373.1430    	0.000000    	                	;
 B59-8           	355.5040    	0.000000    	                	;
 B58-8           	352.5170    	0.000000    	                	;
 B57-8           	352.9730    	0.000000    	                	;
 B56-8           	355.2430    	0.000000    	                	;
 B55-8           	355.4330    	0.000000    	                	;
 B54-8           	353.6680    	0.000000    	                	;
 B53-8           	349.7570    	0.000000    	                	;
 B67-9           	354.3980    	0.000000    	                	;
 DER9.3          	360.5570    	0.000000    	                	;
 B159-9          	356.4920    	0.000000    	                	;
 B298-9          	357.9600    	0.000000    	                	;
 B157-9          	360.4620    	0.000000    	                	;
 B158-9          	360.3110    	0.000000    	                	;
 B96-10          	365.4400    	0.000000    	                	;
 B95-10          	364.0640    	0.000000    	                	;
 B94-10          	361.4360    	0.000000    	                	;
 B103-10         	370.0010    	0           	                	;
 B106-10         	370.5640    	0.000000    	                	;
 B107-10         	372.2030    	0.000000    	                	;
 B101-10         	365.1200    	0           	                	;
 B108-10         	373.2520    	0.000000    	                	;
 B129-11         	364.5920    	0.000000    	                	;
 B130-11         	365.1470    	0.000000    	                	;
 B136-11         	364.4340    	0.000000    	                	;
 B135-11         	361.7170    	0.000000    	                	;
 B132-11         	360.2130    	0.000000    	                	;
 B131-11         	360.0770    	0.000000    	                	;
 DERB.12         	369.9100    	0.000000    	                	;
 B146-12         	366.3790    	0.000000    	                	;
 B145-12         	365.7260    	0.000000    	                	;
 B144-12         	365.3530    	0.000000    	                	;
 B143-12         	366.3600    	0.000000    	                	;
 B139-12         	361.3280    	0.000000    	                	;
 B141-12         	363.9660    	0.000000    	                	;
 B113-12a        	372.8180    	0.000000    	                	;
 B114-12a        	370.4150    	0.000000    	                	;
 DER12.A.3       	374.0380    	0.000000    	                	;
 B116-12a        	374.2090    	0.000000    	                	;
 B115-12a        	374.6070    	0.000000    	                	;
 B117-12a        	374.3460    	0.000000    	                	;
 B118-12a        	376.5650    	0.000000    	                	;
 B119-12a        	379.5830    	0.000000    	                	;
 B153-13         	374.9070    	0.000000    	                	;
 B152'-13        	374.1390    	0.000000    	                	;
 B154-13         	374.9830    	0.000000    	                	;
 B150-13         	371.1050    	0.000000    	                	;
 B148-13         	370.0590    	0.000000    	                	;
 DERB14          	394.9990    	0.000000    	                	;
 B223-14         	384.2960    	0.000000    	                	;
 B224-14         	384.9250    	0.000000    	                	;
 B220-14         	382.5470    	0           	                	;
 B218-14         	381.3250    	0.000000    	                	;
 B172-15         	365.2150    	0.000000    	                	;
 B173-15         	365.1420    	0.000000    	                	;
 B174-15         	365.1450    	0.000000    	                	;
 B175-15         	367.0220    	0.000000    	                	;
 B176-15         	368.0350    	0.000000    	                	;
 B177-15         	369.0390    	0.000000    	                	;
 B178-15         	369.1610    	0.000000    	                	;
 DER15.1         	360.2760    	0.000000    	                	;
 B164-15         	360.4040    	0.000000    	                	;
 B166-15         	361.5480    	0.000000    	                	;
 B167-15         	367.1220    	0.000000    	                	;
 B168-15         	365.0420    	0.000000    	                	;
 B169-15         	366.4140    	0.000000    	                	;
 B192-16         	373.9120    	0.000000    	                	;
 B229-16         	379.1620    	0.000000    	                	;
 B225-16         	383.2310    	0.000000    	                	;
 B227-16         	380.2430    	0.000000    	                	;
 B226-16         	381.6360    	0.000000    	                	;
 B190-16         	372.8770    	0.000000    	                	;
 B186-16         	367.0710    	0           	                	;
 B179-16         	365.0790    	0.000000    	                	;
 B184-16         	365.6310    	0.000000    	                	;
 B185-16         	366.5170    	0.000000    	                	;
 B195-17         	368.0930    	0.000000    	                	;
 B196-17         	368.2180    	0.000000    	                	;
 B199-17         	369.8960    	0.000000    	                	;
 B285-19         	395.0800    	0.000000    	                	;
 B286-19         	398.5050    	0.000000    	                	;
 B287-19         	398.7480    	0.000000    	                	;
 B288-19         	399.2100    	0.000000    	                	;
 B292-19         	399.4280    	0.000000    	                	;
 B289-19         	391.8370    	0.000000    	                	;
 B282-19         	385.0980    	0.000000    	                	;
 B281-19         	384.3590    	0.000000    	                	;
 B280-19         	384.1750    	0.000000    	                	;
 B279-19         	386.3540    	0.000000    	                	;
 B274-19         	380.3880    	0.000000    	                	;
 B273-19         	379.5890    	0.000000    	                	;
 B272-19         	377.8630    	0.000000    	                	;
 B237-20         	379.6780    	0.000000    	                	;
 B264-20         	374.8640    	0.000000    	                	;
 B263-20         	373.5920    	0.000000    	                	;
 B262-20         	372.1890    	0.000000    	                	;
 B261-20         	371.3030    	0.000000    	                	;
 B260-20         	371.0870    	0.000000    	                	;
 B259-20         	370.8550    	0.000000    	                	;
 B266-20         	377.2590    	0.000000    	                	;
 B267-20         	379.4800    	0.000000    	                	;
 B270-20         	381.1200    	0.000000    	                	;
 B271-20         	383.6310    	0.000000    	                	;
 B234-20         	373.1710    	0.000000    	                	;
 B233-20         	373.2350    	0.000000    	                	;
 2A.Q1.002       	406.3490    	0.000000    	                	;
 2A.Q1.006       	391.9260    	0.000000    	                	;
 2A.C1.009       	394.3900    	0.000000    	                	;
 2A.C1.010       	395.2170    	0.000000    	                	;
 2A.C1.011       	395.9640    	0.000000    	                	;
 2A.C1.012       	396.2220    	0.000000    	                	;
 2A.R1.015       	381.0280    	0           	                	;
 2A.R1.016       	382.4280    	0.000000    	                	;
 2A.R1.017       	382.8700    	0.000000    	                	;
 2A.R1.019       	386.1560    	0.000000    	                	;
 2A.R1.020       	387.2440    	0.000000    	                	;
 2A.S1.025       	378.7780    	0.000000    	                	;
 2A.S1.026       	380.1120    	0.000000    	                	;
 2A.T2.031       	375.5290    	0.000000    	                	;
 2A.T2.030       	374.2830    	0.000000    	                	;
 2A.T2.032       	375.9650    	0.000000    	                	;
 2A.T2.033       	378.3830    	0.000000    	                	;
 2A.T1.027       	373.6190    	0.000000    	                	;
 2A.D1.038       	405.6680    	0.000000    	                	;
 2A.D1.039       	400.0060    	0.000000    	                	;
 2A.D1.041       	395.1430    	0.000000    	                	;
 2A.E1.047       	394.8220    	0.000000    	                	;
 2A.E1.048       	393.8080    	0.000000    	                	;
 2A.O1.049       	391.1550    	0.000000    	                	;
 2A.O1.050       	389.6300    	0.000000    	                	;
 2A.O1.054       	385.8580    	0.000000    	                	;
 2A.O1.059       	380.1900    	0.000000    	                	;
 2A.O1.062       	379.0530    	0.000000    	                	;
 2A.O1.055       	385.7360    	0.000000    	                	;
 2A.P1.069       	383.1850    	0.000000    	                	;
 2A.P1.070       	382.7030    	0.000000    	                	;
 2A.P1.071       	381.3690    	0.000000    	                	;
 2A.P1.072       	380.8760    	0.000000    	                	;
 2A.P1.073       	380.2210    	0.000000    	                	;
 2A.P1.074       	379.9780    	0.000000    	                	;
 2A.P1.075       	379.2580    	0.000000    	                	;
 2A.P1.076       	378.9350    	0.000000    	                	;
 2A.P1.079       	375.0000    	0.000000    	                	;
 2A.P1.078       	378.3430    	0.000000    	                	;
 2A.N1.083       	384.6060    	0.000000    	                	;
 2A.N1.084       	384.7360    	0.000000    	                	;
 2A.N1.085       	383.0500    	0.000000    	                	;
 2A.N1.092       	375.1130    	0           	                	;